    24
 geometry
 C                     1.03003929    -3.29485899     0.04995466
 N                    -0.00790008    -2.27579671     0.02913208
 C                    -1.35475062    -2.46470828     0.02561472
 N                    -2.04126811    -1.31439033     0.00226897
 C                    -1.07203327    -0.34987050    -0.00969999
 C                     0.19169397    -0.90244769     0.00615752
 C                     1.38351849    -0.12747663    -0.00040578
 O                     2.55182891    -0.57057388     0.01393458
 N                     1.10570172     1.25423375    -0.02568186
 C                     2.23745343     2.18151381    -0.03540080
 C                    -0.16402882     1.85228225    -0.04270318
 O                    -0.29483264     3.08807538    -0.06466689
 N                    -1.26222573     1.00768518    -0.03384094
 C                    -2.59712434     1.59560869    -0.05093785
 H                     1.66335775    -3.16947532     0.92517299
 H                     0.55487552    -4.27310568     0.07820966
 H                     1.65409857    -3.21614675    -0.83747827
 H                    -1.80157701    -3.44189758     0.04035813
 H                     3.14379843     1.58470148    -0.02052463
 H                     2.20275139     2.80219356    -0.92890285
 H                     2.19350781     2.83203931     0.83620176
 H                    -3.31520350     0.78078533    -0.03785128
 H                    -2.72843500     2.20044916    -0.94677585
 H                    -2.73542742     2.23525557     0.81925842
