    24
 geometry
 C                     1.03003928    -3.29485973     0.04990825
 N                    -0.00789994    -2.27579690     0.02910785
 C                    -1.35475087    -2.46470874     0.02558619
 N                    -2.04126790    -1.31439077     0.00224427
 C                    -1.07203341    -0.34987106    -0.00971790
 C                     0.19169378    -0.90244785     0.00613983
 C                     1.38351728    -0.12747532    -0.00039910
 O                     2.55182821    -0.57057310     0.01394819
 N                     1.10570131     1.25423427    -0.02565365
 C                     2.23745305     2.18151496    -0.03533541
 C                    -0.16402909     1.85228184    -0.04267655
 O                    -0.29483247     3.08807567    -0.06462006
 N                    -1.26222553     1.00768505    -0.03382605
 C                    -2.59712395     1.59560809    -0.05095182
 H                     1.66340584    -3.16944378     0.92508670
 H                     0.55487605    -4.27310484     0.07822526
 H                     1.65405054    -3.21618133    -0.83756211
 H                    -1.80157622    -3.44189864     0.04032280
 H                     3.14379834     1.58470295    -0.02045958
 H                     2.20276373     2.80221552    -0.92882343
 H                     2.19349491     2.83201995     0.83628184
 H                    -3.31520617     0.78079732    -0.03727178
 H                    -2.72865731     2.19996478    -0.94708853
 H                    -2.73520070     2.23572681     0.81892808
