    24
 geometry
 C                     1.02994779    -3.29487615     0.04930242
 N                    -0.00787154    -2.27582586     0.02379887
 C                    -1.35475959    -2.46473481     0.01654946
 N                    -2.04128938    -1.31437643    -0.00679202
 C                    -1.07194097    -0.34982847    -0.01390930
 C                     0.19171336    -0.90249010     0.00541515
 C                     1.38363004    -0.12740600     0.00168439
 O                     2.55177134    -0.57080616     0.01690274
 N                     1.10581937     1.25416566    -0.02240296
 C                     2.23757747     2.18173324    -0.02918980
 C                    -0.16397793     1.85258212    -0.04067931
 O                    -0.29461584     3.08830361    -0.06181297
 N                    -1.26217607     1.00780210    -0.03267689
 C                    -2.59740670     1.59550826    -0.05024961
 H                     1.65881851    -3.16997544     0.92779562
 H                     0.55463679    -4.27315106     0.07449057
 H                     1.65848550    -3.21566452    -0.83491306
 H                    -1.80127992    -3.44217460     0.02332686
 H                     3.14392905     1.58473861    -0.03430875
 H                     2.19133996     2.81731467    -0.91140317
 H                     2.20434321     2.81744784     0.85396114
 H                    -3.31437778     0.78573156     0.05004682
 H                    -2.76343815     2.12908578    -0.98538522
 H                    -2.70105976     2.30097130     0.77184234
