    24
 geometry
 C                     1.03004059    -3.29485712     0.04989653
 N                    -0.00789890    -2.27579365     0.02910105
 C                    -1.35475149    -2.46470987     0.02557500
 N                    -2.04126550    -1.31439166     0.00222437
 C                    -1.07203567    -0.34987278    -0.00973983
 C                     0.19169002    -0.90244390     0.00612428
 C                     1.38350245    -0.12746408    -0.00041262
 O                     2.55181943    -0.57057409     0.01392131
 N                     1.10569972     1.25423292    -0.02564469
 C                     2.23745089     2.18151278    -0.03530514
 C                    -0.16402856     1.85226796    -0.04265098
 O                    -0.29483466     3.08806655    -0.06454732
 N                    -1.26222241     1.00768039    -0.03383578
 C                    -2.59711938     1.59560767    -0.05096742
 H                     1.66342657    -3.16942544     0.92506033
 H                     0.55487799    -4.27310201     0.07824339
 H                     1.65403452    -3.21619575    -0.83758916
 H                    -1.80157525    -3.44189996     0.04032228
 H                     3.14380004     1.58470455    -0.02045861
 H                     2.20275677     2.80224566    -0.92877004
 H                     2.19350503     2.83198983     0.83633315
 H                    -3.31520535     0.78080779    -0.03701537
 H                    -2.72875996     2.19974547    -0.94723747
 H                    -2.73508811     2.23594386     0.81876602
