    24
 geometry
 C                     1.03003932    -3.29485954     0.04990240
 N                    -0.00789990    -2.27579662     0.02910356
 C                    -1.35475135    -2.46470878     0.02557989
 N                    -2.04126713    -1.31439072     0.00223588
 C                    -1.07203380    -0.34987139    -0.00972573
 C                     0.19169327    -0.90244729     0.00613417
 C                     1.38351499    -0.12747329    -0.00039867
 O                     2.55182706    -0.57057293     0.01395406
 N                     1.10570096     1.25423403    -0.02565026
 C                     2.23745265     2.18151487    -0.03532603
 C                    -0.16402937     1.85227923    -0.04267120
 O                    -0.29483278     3.08807399    -0.06460361
 N                    -1.26222494     1.00768412    -0.03382853
 C                    -2.59712307     1.59560801    -0.05095400
 H                     1.66341281    -3.16943756     0.92507530
 H                     0.55487639    -4.27310456     0.07822977
 H                     1.65404435    -3.21618705    -0.83757333
 H                    -1.80157567    -3.44189899     0.04031626
 H                     3.14379858     1.58470344    -0.02045293
 H                     2.20276382     2.80222060    -0.92881036
 H                     2.19349452     2.83201478     0.83629497
 H                    -3.31520633     0.78080061    -0.03717219
 H                    -2.72869750     2.19988431    -0.94713942
 H                    -2.73515814     2.23580586     0.81887329
