    24
 geometry
 C                     1.03003920    -3.29485548     0.04995956
 N                    -0.00789532    -2.27578621     0.02921621
 C                    -1.35475176    -2.46471282     0.02551183
 N                    -2.04125902    -1.31440011     0.00204000
 C                    -1.07204124    -0.34987977    -0.00982613
 C                     0.19168576    -0.90243757     0.00625893
 C                     1.38348748    -0.12744648    -0.00040839
 O                     2.55181543    -0.57055875     0.01366158
 N                     1.10568981     1.25423865    -0.02548329
 C                     2.23744758     2.18150734    -0.03522094
 C                    -0.16403292     1.85225423    -0.04248139
 O                    -0.29483722     3.08806456    -0.06414837
 N                    -1.26222083     1.00767465    -0.03396906
 C                    -2.59711062     1.59561165    -0.05111375
 H                     1.66346032    -3.16945380     0.92510337
 H                     0.55487185    -4.27309827     0.07829175
 H                     1.65400971    -3.21617921    -0.83754572
 H                    -1.80155378    -3.44191462     0.04015552
 H                     3.14379538     1.58467653    -0.02113366
 H                     2.20227672     2.80271419    -0.92833330
 H                     2.19396513     2.83153621     0.83678005
 H                    -3.31521621     0.78084951    -0.03604105
 H                    -2.72918440     2.19885927    -0.94792661
 H                    -2.73462228     2.23681145     0.81804616
