    24
 geometry
 C                     1.02993899    -3.29476134     0.04056755
 N                    -0.00803189    -2.27554413     0.02637389
 C                    -1.35484550    -2.46419334     0.02341756
 N                    -2.04118725    -1.31379058    -0.00050144
 C                    -1.07171929    -0.34947623    -0.01325260
 C                     0.19180292    -0.90227793     0.00013609
 C                     1.38361475    -0.12720774     0.00117292
 O                     2.55189482    -0.57046271     0.01631230
 N                     1.10585265     1.25439911    -0.01928361
 C                     2.23762205     2.18156833    -0.01958189
 C                    -0.16388928     1.85270430    -0.03947649
 O                    -0.29352722     3.08872848    -0.06111775
 N                    -1.26203508     1.00825714    -0.03124289
 C                    -2.59759061     1.59429397    -0.05601943
 H                     1.66488337    -3.17342695     0.91516016
 H                     0.55478789    -4.27309346     0.06534799
 H                     1.65223537    -3.21184046    -0.84769297
 H                    -1.80220028    -3.44114465     0.03676980
 H                     3.14380160     1.58447680    -0.03000456
 H                     2.19146277     2.82396808    -0.89687595
 H                     2.20532931     2.81072279     0.86821686
 H                    -3.31300425     0.79178279     0.09824592
 H                    -2.78302519     2.07841864    -1.01459716
 H                    -2.68435188     2.34197422     0.72931899
