    24
 geometry
 C                     1.03003980    -3.29485802     0.04988614
 N                    -0.00789937    -2.27579484     0.02907900
 C                    -1.35475218    -2.46471163     0.02554455
 N                    -2.04126809    -1.31439336     0.00216220
 C                    -1.07203712    -0.34987348    -0.00982274
 C                     0.19169083    -0.90244526     0.00606867
 C                     1.38350804    -0.12746795    -0.00035293
 O                     2.55182283    -0.57056861     0.01414726
 N                     1.10570232     1.25423400    -0.02563721
 C                     2.23745533     2.18151456    -0.03531780
 C                    -0.16402772     1.85227141    -0.04268437
 O                    -0.29482822     3.08806841    -0.06456960
 N                    -1.26222620     1.00767989    -0.03391553
 C                    -2.59712445     1.59560759    -0.05093621
 H                     1.66342247    -3.16942264     0.92505106
 H                     0.55487742    -4.27310268     0.07822998
 H                     1.65403699    -3.21620042    -0.83759732
 H                    -1.80157481    -3.44190145     0.04031713
 H                     3.14380120     1.58470162    -0.02044580
 H                     2.20276412     2.80221860    -0.92880346
 H                     2.19350743     2.83202423     0.83629510
 H                    -3.31520815     0.78080671    -0.03686361
 H                    -2.72887365     2.19970009    -0.94722135
 H                    -2.73499007     2.23598837     0.81878014
