    24
 geometry
 C                     1.03003931    -3.29485942     0.04992974
 N                    -0.00790002    -2.27579684     0.02912042
 C                    -1.35475067    -2.46470847     0.02560123
 N                    -2.04126799    -1.31439046     0.00225905
 C                    -1.07203323    -0.34987068    -0.00970602
 C                     0.19169396    -0.90244773     0.00615073
 C                     1.38351794    -0.12747601    -0.00040066
 O                     2.55182863    -0.57057337     0.01394206
 N                     1.10570146     1.25423415    -0.02566568
 C                     2.23745317     2.18151440    -0.03536737
 C                    -0.16402896     1.85228219    -0.04268964
 O                    -0.29483273     3.08807551    -0.06464755
 N                    -1.26222563     1.00768515    -0.03383122
 C                    -2.59712414     1.59560830    -0.05094550
 H                     1.66338402    -3.16945909     0.92512643
 H                     0.55487587    -4.27310531     0.07821762
 H                     1.65407220    -3.21616475    -0.83752366
 H                    -1.80157693    -3.44189790     0.04034047
 H                     3.14379826     1.58470213    -0.02049136
 H                     2.20275719     2.80220383    -0.92886290
 H                     2.19350200     2.83203045     0.83624199
 H                    -3.31520476     0.78079111    -0.03756245
 H                    -2.72854457     2.20020565    -0.94693394
 H                    -2.73531562     2.23549230     0.81909150
