    24
 geometry
 C                     1.03003916    -3.29485878     0.04998275
 N                    -0.00790014    -2.27579673     0.02914534
 C                    -1.35475061    -2.46470815     0.02563006
 N                    -2.04126818    -1.31439029     0.00227910
 C                    -1.07203318    -0.34987056    -0.00969524
 C                     0.19169406    -0.90244783     0.00616380
 C                     1.38351893    -0.12747721    -0.00041333
 O                     2.55182924    -0.57057403     0.01392395
 N                     1.10570177     1.25423334    -0.02570133
 C                     2.23745314     2.18151344    -0.03543715
 C                    -0.16402877     1.85228210    -0.04271913
 O                    -0.29483256     3.08807505    -0.06468805
 N                    -1.26222566     1.00768487    -0.03385293
 C                    -2.59712413     1.59560907    -0.05092914
 H                     1.66332429    -3.16949802     0.92522881
 H                     0.55487491    -4.27310648     0.07819426
 H                     1.65413201    -3.21612263    -0.83742404
 H                    -1.80157729    -3.44189722     0.04037981
 H                     3.14379835     1.58470142    -0.02056231
 H                     2.20274405     2.80218483    -0.92894475
 H                     2.19351412     2.83204716     0.83615960
 H                    -3.31520222     0.78077962    -0.03816295
 H                    -2.72831634     2.20071324    -0.94660370
 H                    -2.73554620     2.23499892     0.81943986
