    24
 geometry
 C                     1.03004026    -3.29485880     0.04989473
 N                    -0.00789929    -2.27579541     0.02911139
 C                    -1.35475052    -2.46470800     0.02558976
 N                    -2.04126540    -1.31439012     0.00226551
 C                    -1.07203305    -0.34987122    -0.00967968
 C                     0.19169226    -0.90244599     0.00616439
 C                     1.38350958    -0.12746993    -0.00045282
 O                     2.55182365    -0.57057772     0.01376202
 N                     1.10569908     1.25423330    -0.02564464
 C                     2.23744911     2.18151382    -0.03528535
 C                    -0.16402963     1.85227635    -0.04262227
 O                    -0.29483746     3.08807303    -0.06452640
 N                    -1.26222213     1.00768420    -0.03377096
 C                    -2.59711910     1.59560776    -0.05099067
 H                     1.66343261    -3.16942744     0.92505315
 H                     0.55487727    -4.27310336     0.07824804
 H                     1.65402622    -3.21619656    -0.83759561
 H                    -1.80157610    -3.44189809     0.04031408
 H                     3.14379791     1.58470602    -0.02044773
 H                     2.20275723     2.80226332    -0.92873865
 H                     2.19349458     2.83196834     0.83637022
 H                    -3.31520517     0.78080699    -0.03701132
 H                    -2.72872298     2.19968328    -0.94730941
 H                    -2.73512019     2.23600135     0.81869553
