    24
 geometry
 C                     1.03004059    -3.29485710     0.04989169
 N                    -0.00789932    -2.27579510     0.02908006
 C                    -1.35475176    -2.46471034     0.02555443
 N                    -2.04126713    -1.31439245     0.00219844
 C                    -1.07203614    -0.34987290    -0.00977058
 C                     0.19169090    -0.90244604     0.00609613
 C                     1.38350849    -0.12746941    -0.00043431
 O                     2.55182282    -0.57057487     0.01389987
 N                     1.10570027     1.25423312    -0.02565556
 C                     2.23745307     2.18151313    -0.03528374
 C                    -0.16402961     1.85227423    -0.04262264
 O                    -0.29483387     3.08807252    -0.06445178
 N                    -1.26222496     1.00768213    -0.03384220
 C                    -2.59712263     1.59560808    -0.05097351
 H                     1.66343450    -3.16939867     0.92504461
 H                     0.55487922    -4.27310146     0.07827134
 H                     1.65402622    -3.21622053    -0.83760169
 H                    -1.80157327    -3.44190142     0.04031094
 H                     3.14379932     1.58470156    -0.02042847
 H                     2.20277530     2.80225534    -0.92874354
 H                     2.19348773     2.83197924     0.83636116
 H                    -3.31520899     0.78081186    -0.03677016
 H                    -2.72886343     2.19954475    -0.94736743
 H                    -2.73498857     2.23613948     0.81863022
