    24
 geometry
 C                     1.03047347    -3.29051085    -0.01395957
 N                    -0.00756174    -2.27136346    -0.00890786
 C                    -1.35462775    -2.46107281    -0.00547002
 N                    -2.04171656    -1.31044913    -0.00440844
 C                    -1.07258202    -0.34577212    -0.00727180
 C                     0.19068816    -0.89829116    -0.00803515
 C                     1.37997076    -0.11985140    -0.00843098
 O                     2.55123678    -0.55566774    -0.01598776
 N                     1.10221512     1.26064657     0.00401976
 C                     2.24741057     2.17171079     0.00201819
 C                    -0.16826934     1.86074254    -0.00346617
 O                    -0.30272544     3.09662978    -0.01162227
 N                    -1.26435305     1.01180675     0.00541424
 C                    -2.60451863     1.58712129    -0.01551363
 H                     1.68093649    -3.16918335     0.84925114
 H                     0.55571899    -4.26899058     0.01896791
 H                     1.63709822    -3.20786269    -0.91337023
 H                    -1.80157483    -3.43848520    -0.00170429
 H                     3.08965141     1.65401063     0.45102095
 H                     2.50860889     2.45781312    -1.01790072
 H                     1.98452294     3.06522516     0.55971577
 H                    -3.29696306     0.84403394     0.37015118
 H                    -2.89323579     1.85849488    -1.03203370
 H                    -2.61258483     2.48334017     0.59891674
