    24
 geometry
 C                     1.03003924    -3.29485890     0.04996759
 N                    -0.00790011    -2.27579675     0.02913816
 C                    -1.35475062    -2.46470824     0.02562169
 N                    -2.04126815    -1.31439033     0.00227364
 C                    -1.07203322    -0.34987057    -0.00969767
 C                     0.19169403    -0.90244782     0.00616051
 C                     1.38351876    -0.12747700    -0.00040908
 O                     2.55182910    -0.57057399     0.01392991
 N                     1.10570171     1.25423350    -0.02569070
 C                     2.23745316     2.18151365    -0.03541757
 C                    -0.16402882     1.85228217    -0.04271058
 O                    -0.29483265     3.08807521    -0.06467691
 N                    -1.26222568     1.00768500    -0.03384647
 C                    -2.59712412     1.59560893    -0.05093380
 H                     1.66334285    -3.16948526     0.92519824
 H                     0.55487527    -4.27310603     0.07820339
 H                     1.65411345    -3.21613613    -0.83745371
 H                    -1.80157714    -3.44189743     0.04036786
 H                     3.14379832     1.58470155    -0.02054159
 H                     2.20274792     2.80218914    -0.92892246
 H                     2.19351025     2.83204329     0.83618202
 H                    -3.31520287     0.78078280    -0.03799578
 H                    -2.72837981     2.20057171    -0.94669601
 H                    -2.73548211     2.23513663     0.81934261
