    24
 geometry
 C                     1.03004028    -3.29485755     0.04989451
 N                    -0.00789939    -2.27579486     0.02909576
 C                    -1.35475150    -2.46470963     0.02556759
 N                    -2.04126612    -1.31439177     0.00221478
 C                    -1.07203527    -0.34987263    -0.00974989
 C                     0.19169101    -0.90244541     0.00611719
 C                     1.38350679    -0.12746730    -0.00039117
 O                     2.55182154    -0.57057317     0.01399214
 N                     1.10569995     1.25423351    -0.02564490
 C                     2.23745196     2.18151300    -0.03531599
 C                    -0.16402902     1.85227244    -0.04266802
 O                    -0.29483415     3.08806964    -0.06457951
 N                    -1.26222350     1.00768167    -0.03384768
 C                    -2.59712098     1.59560800    -0.05095302
 H                     1.66342003    -3.16942873     0.92506250
 H                     0.55487817    -4.27310286     0.07823274
 H                     1.65403979    -3.21619172    -0.83758644
 H                    -1.80157466    -3.44190009     0.04031024
 H                     3.14379921     1.58470323    -0.02044809
 H                     2.20276305     2.80222501    -0.92879585
 H                     2.19349877     2.83200870     0.83630806
 H                    -3.31520578     0.78080603    -0.03702391
 H                    -2.72876511     2.19977630    -0.94720203
 H                    -2.73508630     2.23591334     0.81880427
