    24
 geometry
 C                     1.03023417    -3.29074561    -0.01106142
 N                    -0.00835873    -2.27207338    -0.00857298
 C                    -1.35538653    -2.46020591    -0.00456759
 N                    -2.04180864    -1.30980515    -0.00466422
 C                    -1.07198806    -0.34546451    -0.00825512
 C                     0.19093302    -0.89867181    -0.01097232
 C                     1.38054693    -0.12077900    -0.00774905
 O                     2.55175191    -0.55698644    -0.01071561
 N                     1.10241061     1.26086294     0.00010656
 C                     2.24793927     2.17274833    -0.00083125
 C                    -0.16793067     1.86074146    -0.00380178
 O                    -0.30208925     3.09704618    -0.00748678
 N                    -1.26425119     1.01198828     0.00060680
 C                    -2.60521170     1.58705625    -0.01741231
 H                     1.67954527    -3.16761255     0.85255864
 H                     0.55652661    -4.26946208     0.02323459
 H                     1.63736437    -3.20937481    -0.91004725
 H                    -1.80171307    -3.43775529    -0.00248940
 H                     3.09334927     1.64836205     0.43355506
 H                     2.49816934     2.47339878    -1.01880949
 H                     1.99111522     3.05731027     0.57330952
 H                    -3.29695397     0.83986203     0.36115727
 H                    -2.89184067     1.86706006    -1.03171233
 H                    -2.61453477     2.47657506     0.60601375
