    24
 geometry
 C                     1.03003991    -3.29485341     0.04988279
 N                    -0.00789762    -2.27578521     0.02916398
 C                    -1.35475348    -2.46471281     0.02540427
 N                    -2.04125504    -1.31439353     0.00196342
 C                    -1.07203808    -0.34987599    -0.00981287
 C                     0.19168186    -0.90243122     0.00626977
 C                     1.38347113    -0.12743931    -0.00038257
 O                     2.55180602    -0.57057597     0.01362785
 N                     1.10569441     1.25423484    -0.02539184
 C                     2.23744493     2.18150947    -0.03520771
 C                    -0.16402623     1.85222602    -0.04242841
 O                    -0.29483541     3.08804417    -0.06409104
 N                    -1.26221048     1.00766655    -0.03393788
 C                    -2.59710204     1.59560444    -0.05102020
 H                     1.66346142    -3.16946198     0.92502918
 H                     0.55487612    -4.27309910     0.07820505
 H                     1.65400253    -3.21616034    -0.83762694
 H                    -1.80157884    -3.44190147     0.04007965
 H                     3.14380761     1.58472471    -0.02026119
 H                     2.20277143     2.80209585    -0.92877920
 H                     2.19348720     2.83215222     0.83630257
 H                    -3.31519833     0.78084850    -0.03566084
 H                    -2.72934838     2.19865260    -0.94794219
 H                    -2.73448184     2.23700613     0.81800765
