    24
 geometry
 C                     1.03056633    -3.29291292     0.00421840
 N                    -0.00744975    -2.27328724     0.00414318
 C                    -1.35422696    -2.46460867     0.00636605
 N                    -2.04127170    -1.31308050    -0.00306401
 C                    -1.07255130    -0.34919175    -0.00967265
 C                     0.19138603    -0.90094349    -0.00746218
 C                     1.38444374    -0.12482691     0.01581250
 O                     2.55194280    -0.56449650     0.05337428
 N                     1.10630062     1.25535370    -0.00058312
 C                     2.24064597     2.17743116    -0.01677656
 C                    -0.16699093     1.85426410    -0.01370097
 O                    -0.29575283     3.08737694    -0.01557319
 N                    -1.26350136     1.00993412    -0.02049342
 C                    -2.59928243     1.59208291    -0.03212960
 H                     1.67513900    -3.17336154     0.87146571
 H                     0.55565533    -4.27109777     0.03045237
 H                     1.64308296    -3.20740761    -0.89050333
 H                    -1.80425533    -3.43991049     0.00587312
 H                     3.12826439     1.60914571     0.24114739
 H                     2.36083136     2.61264128    -1.00984111
 H                     2.06359709     2.98265724     0.68999706
 H                    -3.30508690     0.81926136     0.25742194
 H                    -2.85053274     1.95916502    -1.02838681
 H                    -2.63313462     2.42988699     0.65930826
