    24
 geometry
 C                     1.03003961    -3.29485894     0.04987767
 N                    -0.00790028    -2.27579652     0.02908597
 C                    -1.35475153    -2.46470899     0.02555444
 N                    -2.04126751    -1.31439134     0.00219953
 C                    -1.07203388    -0.34987232    -0.00976154
 C                     0.19169274    -0.90244760     0.00610885
 C                     1.38351329    -0.12747416    -0.00045397
 O                     2.55182528    -0.57057839     0.01381807
 N                     1.10570089     1.25423342    -0.02564830
 C                     2.23745138     2.18151634    -0.03524720
 C                    -0.16402908     1.85227909    -0.04259974
 O                    -0.29483475     3.08807592    -0.06441663
 N                    -1.26222425     1.00768334    -0.03382631
 C                    -2.59712196     1.59560647    -0.05099330
 H                     1.66344930    -3.16939985     0.92501887
 H                     0.55487823    -4.27310282     0.07826967
 H                     1.65400810    -3.21622282    -0.83762718
 H                    -1.80157633    -3.44189859     0.04030920
 H                     3.14379916     1.58470652    -0.02041960
 H                     2.20276813     2.80229166    -0.92868345
 H                     2.19348708     2.83194656     0.83642489
 H                    -3.31520831     0.78081356    -0.03654554
 H                    -2.72894160     2.19933089    -0.94752107
 H                    -2.73490494     2.23634371     0.81846996
