    24
 geometry
 C                     1.02930655    -3.29043926    -0.01650203
 N                    -0.00775888    -2.27063989    -0.00765756
 C                    -1.35465177    -2.45943679    -0.00587941
 N                    -2.04152749    -1.30995696    -0.00288858
 C                    -1.07217802    -0.34556227    -0.00274740
 C                     0.19151783    -0.89771574    -0.00319230
 C                     1.38026603    -0.11942354    -0.00504938
 O                     2.55103759    -0.55663582    -0.01395546
 N                     1.10266222     1.26151632     0.00925141
 C                     2.24898722     2.17244255     0.00249216
 C                    -0.16760295     1.86051879    -0.00259714
 O                    -0.30395497     3.09604484    -0.01521330
 N                    -1.26428416     1.01144626     0.01005892
 C                    -2.60548157     1.58525656    -0.01493279
 H                     1.68048766    -3.17235186     0.84639071
 H                     0.55371336    -4.26817972     0.01343759
 H                     1.63582346    -3.20513326    -0.91556860
 H                    -1.80130006    -3.43686818    -0.00466125
 H                     3.09064614     1.65795912     0.45520293
 H                     2.51335517     2.45088325    -1.01864018
 H                     1.98473404     3.07075678     0.55073845
 H                    -3.29779369     0.84337262     0.37286790
 H                    -2.89416521     1.85121277    -1.03276468
 H                    -2.61401974     2.48500859     0.59320329
