    24
 geometry
 C                     1.02993104    -3.29479254     0.04522657
 N                    -0.00793537    -2.27567144     0.02255083
 C                    -1.35477752    -2.46444265     0.01704927
 N                    -2.04121502    -1.31402243    -0.00427219
 C                    -1.07185098    -0.34955836    -0.01211878
 C                     0.19178497    -0.90228175     0.00373495
 C                     1.38359903    -0.12731533     0.00131862
 O                     2.55193177    -0.57032780     0.01474983
 N                     1.10574343     1.25448134    -0.01944927
 C                     2.23763227     2.18156001    -0.02538649
 C                    -0.16393298     1.85278481    -0.03483253
 O                    -0.29401349     3.08875185    -0.05225494
 N                    -1.26220177     1.00812186    -0.02847959
 C                    -2.59750636     1.59464885    -0.05494797
 H                     1.65978507    -3.17125132     0.92321356
 H                     0.55464888    -4.27308316     0.06971843
 H                     1.65744711    -3.21426258    -0.83957792
 H                    -1.80184907    -3.44155403     0.02964487
 H                     3.14377969     1.58445335    -0.04043397
 H                     2.18655830     2.82422680    -0.90215707
 H                     2.21043663     2.81027224     0.86298461
 H                    -3.31402496     0.78963626     0.08030732
 H                    -2.77407766     2.09438317    -1.00706495
 H                    -2.69207422     2.32931797     0.74187010
