    24
 geometry
 C                     1.02957783    -3.29137651    -0.00911259
 N                    -0.00790599    -2.27207835    -0.00567208
 C                    -1.35469769    -2.46022275    -0.00263946
 N                    -2.04113673    -1.31038141    -0.00272671
 C                    -1.07185745    -0.34549623    -0.00385572
 C                     0.19122338    -0.89851918    -0.00913273
 C                     1.37967762    -0.12085046    -0.00047296
 O                     2.55092883    -0.55760517     0.00554317
 N                     1.10200312     1.26071093     0.00074622
 C                     2.24682698     2.17377000    -0.00556518
 C                    -0.16662506     1.85980417    -0.00371946
 O                    -0.30189017     3.09562950    -0.00506725
 N                    -1.26364464     1.01118793    -0.00251576
 C                    -2.60427967     1.58761213    -0.02053402
 H                     1.67852002    -3.17027962     0.85544853
 H                     0.55444156    -4.26970487     0.02304652
 H                     1.63803207    -3.20873390    -0.90736004
 H                    -1.80014174    -3.43862939    -0.00694409
 H                     3.10130009     1.63969422     0.39908586
 H                     2.47448928     2.49586526    -1.02241895
 H                     2.00327222     3.04778285     0.59117485
 H                    -3.29841575     0.83510167     0.34352369
 H                    -2.88450725     1.88066991    -1.03299518
 H                    -2.61737211     2.47012441     0.61355664
