    24
 geometry
 C                     1.03003993    -3.29485870     0.04988600
 N                    -0.00789963    -2.27579619     0.02908394
 C                    -1.35475146    -2.46471032     0.02555387
 N                    -2.04126821    -1.31439238     0.00219496
 C                    -1.07203544    -0.34987231    -0.00977314
 C                     0.19169233    -0.90244711     0.00609993
 C                     1.38351378    -0.12747302    -0.00039503
 O                     2.55182601    -0.57057265     0.01399517
 N                     1.10570160     1.25423395    -0.02564015
 C                     2.23745427     2.18151467    -0.03529916
 C                    -0.16402907     1.85227851    -0.04264844
 O                    -0.29483132     3.08807443    -0.06452107
 N                    -1.26222635     1.00768332    -0.03385666
 C                    -2.59712458     1.59560810    -0.05095953
 H                     1.66342862    -3.16941705     0.92504483
 H                     0.55487783    -4.27310315     0.07824246
 H                     1.65402992    -3.21620589    -0.83760219
 H                    -1.80157443    -3.44190075     0.04030651
 H                     3.14379925     1.58470143    -0.02043506
 H                     2.20276689     2.80223469    -0.92877386
 H                     2.19349684     2.83200321     0.83632973
 H                    -3.31520902     0.78080763    -0.03683195
 H                    -2.72885083     2.19961869    -0.94730481
 H                    -2.73500816     2.23606602     0.81869693
