    24
 geometry
 C                     1.02992579    -3.29486894     0.04005600
 N                    -0.00796823    -2.27561450     0.02601535
 C                    -1.35486815    -2.46423916     0.02359455
 N                    -2.04126800    -1.31380144     0.00041094
 C                    -1.07175759    -0.34950808    -0.01286580
 C                     0.19180197    -0.90234011     0.00096922
 C                     1.38360254    -0.12727840     0.00112801
 O                     2.55181292    -0.57063036     0.01631893
 N                     1.10582364     1.25437965    -0.01890231
 C                     2.23756945     2.18176061    -0.01972005
 C                    -0.16381807     1.85279231    -0.03892160
 O                    -0.29382259     3.08864996    -0.06080128
 N                    -1.26202455     1.00814353    -0.03075885
 C                    -2.59753380     1.59454067    -0.05640009
 H                     1.66501673    -3.17370537     0.91460462
 H                     0.55468578    -4.27319920     0.06463675
 H                     1.65213144    -3.21197853    -0.84830239
 H                    -1.80191815    -3.44138420     0.03754841
 H                     3.14393388     1.58477893    -0.02860103
 H                     2.19155097     2.82300849    -0.89779756
 H                     2.20470731     2.81184610     0.86752221
 H                    -3.31312403     0.79204740     0.09775296
 H                    -2.78202881     2.07855400    -1.01518062
 H                    -2.68461171     2.34212178     0.72908691
