    24
 geometry
 C                     1.03003920    -3.29485869     0.04997981
 N                    -0.00790019    -2.27579673     0.02914389
 C                    -1.35475066    -2.46470816     0.02562828
 N                    -2.04126821    -1.31439028     0.00227807
 C                    -1.07203320    -0.34987055    -0.00969544
 C                     0.19169402    -0.90244785     0.00616337
 C                     1.38351892    -0.12747725    -0.00041228
 O                     2.55182920    -0.57057414     0.01392540
 N                     1.10570178     1.25423331    -0.02569910
 C                     2.23745316     2.18151342    -0.03543360
 C                    -0.16402876     1.85228212    -0.04271712
 O                    -0.29483255     3.08807509    -0.06468534
 N                    -1.26222567     1.00768492    -0.03385143
 C                    -2.59712413     1.59560904    -0.05093007
 H                     1.66332789    -3.16949531     0.92522288
 H                     0.55487513    -4.27310635     0.07819607
 H                     1.65412840    -3.21612505    -0.83742979
 H                    -1.80157730    -3.44189726     0.04037703
 H                     3.14379835     1.58470137    -0.02055840
 H                     2.20274474     2.80218525    -0.92894093
 H                     2.19351342     2.83204667     0.83616346
 H                    -3.31520231     0.78078018    -0.03813091
 H                    -2.72832834     2.20068589    -0.94662159
 H                    -2.73553409     2.23502549     0.81942103
