    24
 geometry
 C                     1.03067845    -3.29516537     0.03238779
 N                    -0.00778337    -2.27611068     0.01832802
 C                    -1.35493758    -2.46446799     0.01168250
 N                    -2.04177290    -1.31408613    -0.01305478
 C                    -1.07236015    -0.34886089    -0.02533538
 C                     0.19142962    -0.90219910    -0.00705356
 C                     1.38283144    -0.12714714     0.01608571
 O                     2.55136458    -0.57079910     0.05769589
 N                     1.10564162     1.25480343    -0.00952292
 C                     2.23798570     2.18202838    -0.02560186
 C                    -0.16334627     1.85248534    -0.03467204
 O                    -0.29171559     3.08785713    -0.05397177
 N                    -1.26299095     1.00869947    -0.03632095
 C                    -2.59921103     1.59581254    -0.04601956
 H                     1.66464898    -3.17540997     0.90746581
 H                     0.55609238    -4.27369517     0.05434630
 H                     1.65377360    -3.21165652    -0.85513065
 H                    -1.80043500    -3.44188593     0.02879287
 H                     3.14292850     1.58649357     0.03106840
 H                     2.22416061     2.77269318    -0.93992672
 H                     2.17418562     2.85946017     0.82287614
 H                    -3.31123883     0.79810625     0.14313575
 H                    -2.80611466     2.05787740    -1.01081889
 H                    -2.66599599     2.35924226     0.72495720
