    24
 geometry
 C                     1.02984612    -3.29445880     0.04057318
 N                    -0.00823551    -2.27526414     0.02656307
 C                    -1.35502391    -2.46413205     0.02369764
 N                    -2.04137962    -1.31381592    -0.00017750
 C                    -1.07192321    -0.34943697    -0.01236181
 C                     0.19168973    -0.90198113    -0.00010832
 C                     1.38347891    -0.12671899     0.00073129
 O                     2.55214166    -0.56912453     0.01489071
 N                     1.10591548     1.25469621    -0.01981774
 C                     2.23821821     2.18117919    -0.01925790
 C                    -0.16399949     1.85265601    -0.03932193
 O                    -0.29206922     3.08897289    -0.06011292
 N                    -1.26227368     1.00837436    -0.03105130
 C                    -2.59811071     1.59349393    -0.05595520
 H                     1.66496032    -3.17294692     0.91492601
 H                     0.55480711    -4.27275410     0.06574711
 H                     1.65195373    -3.21157288    -0.84776393
 H                    -1.80266431    -3.44084647     0.03572633
 H                     3.14401729     1.58374758    -0.02863528
 H                     2.19423129     2.82323676    -0.89703808
 H                     2.20487687     2.81102710     0.86773088
 H                    -3.31316870     0.79104350     0.09924030
 H                    -2.78457853     2.07645583    -1.01494164
 H                    -2.68489106     2.34224468     0.72811035
