    24
 geometry
 C                     1.02991648    -3.29481391     0.05014523
 N                    -0.00788509    -2.27572948     0.02565939
 C                    -1.35475587    -2.46468363     0.02025143
 N                    -2.04120015    -1.31434564    -0.00291130
 C                    -1.07202396    -0.34980553    -0.01228301
 C                     0.19171795    -0.90235141     0.00666029
 C                     1.38350613    -0.12747529     0.00031414
 O                     2.55190592    -0.57024158     0.01628703
 N                     1.10563316     1.25443517    -0.02516306
 C                     2.23752485     2.18152571    -0.03117956
 C                    -0.16394765     1.85229343    -0.04424080
 O                    -0.29457552     3.08813732    -0.06737004
 N                    -1.26224716     1.00770780    -0.03563012
 C                    -2.59713145     1.59532052    -0.04974092
 H                     1.66028740    -3.16936784     0.92747538
 H                     0.55465942    -4.27305150     0.07688891
 H                     1.65702719    -3.21632095    -0.83516491
 H                    -1.80149108    -3.44197656     0.02782331
 H                     3.14387265     1.58458807    -0.02984113
 H                     2.19603268     2.81360642    -0.91620808
 H                     2.20071553     2.82089883     0.84911200
 H                    -3.31488225     0.78280804     0.01628703
 H                    -2.75157409     2.15875791    -0.96895378
 H                    -2.71326632     2.27415924     0.79317587
