    24
 geometry
 C                     1.03003919    -3.29485891     0.04997072
 N                    -0.00790012    -2.27579676     0.02913976
 C                    -1.35475062    -2.46470820     0.02562372
 N                    -2.04126815    -1.31439030     0.00227476
 C                    -1.07203318    -0.34987058    -0.00969760
 C                     0.19169406    -0.90244784     0.00616080
 C                     1.38351879    -0.12747702    -0.00041032
 O                     2.55182915    -0.57057393     0.01392828
 N                     1.10570173     1.25423348    -0.02569319
 C                     2.23745315     2.18151365    -0.03542123
 C                    -0.16402877     1.85228215    -0.04271297
 O                    -0.29483250     3.08807516    -0.06468017
 N                    -1.26222564     1.00768496    -0.03384825
 C                    -2.59712411     1.59560892    -0.05093276
 H                     1.66333931    -3.16948778     0.92520430
 H                     0.55487513    -4.27310613     0.07820189
 H                     1.65411693    -3.21613359    -0.83744784
 H                    -1.80157721    -3.44189735     0.04037109
 H                     3.14379837     1.58470162    -0.02054532
 H                     2.20274744     2.80218861    -0.92892647
 H                     2.19351067     2.83204381     0.83617799
 H                    -3.31520267     0.78078206    -0.03803040
 H                    -2.72836697     2.20060131    -0.94667656
 H                    -2.73549519     2.23510777     0.81936308
