    24
 geometry
 C                     1.03004237    -3.29484905     0.04991549
 N                    -0.00790015    -2.27578808     0.02917001
 C                    -1.35475676    -2.46471260     0.02548053
 N                    -2.04126302    -1.31439574     0.00207162
 C                    -1.07204398    -0.34987753    -0.00977398
 C                     0.19168237    -0.90243595     0.00624131
 C                     1.38347728    -0.12744472    -0.00038865
 O                     2.55180603    -0.57057530     0.01375127
 N                     1.10569585     1.25423430    -0.02549587
 C                     2.23745149     2.18150654    -0.03526384
 C                    -0.16403015     1.85225356    -0.04247808
 O                    -0.29483444     3.08806103    -0.06420448
 N                    -1.26222051     1.00767318    -0.03387673
 C                    -2.59711494     1.59560391    -0.05104691
 H                     1.66344836    -3.16943507     0.92506937
 H                     0.55488642    -4.27309773     0.07826051
 H                     1.65402030    -3.21616255    -0.83758144
 H                    -1.80156623    -3.44190933     0.04014793
 H                     3.14380511     1.58469679    -0.02072795
 H                     2.20254330     2.80239063    -0.92861314
 H                     2.19373468     2.83183531     0.83649698
 H                    -3.31521019     0.78083239    -0.03623806
 H                    -2.72908430     2.19904242    -0.94774560
 H                    -2.73475011     2.23662872     0.81822303
