    24
 geometry
 C                     1.03045458    -3.28920410    -0.02226564
 N                    -0.00865133    -2.27125493    -0.00353610
 C                    -1.35631978    -2.45969780    -0.00788521
 N                    -2.04308641    -1.30913533     0.00078984
 C                    -1.07206157    -0.34584218     0.01172699
 C                     0.19108630    -0.89851064     0.01042052
 C                     1.38094810    -0.12057104     0.00649474
 O                     2.55313018    -0.55402568    -0.00643518
 N                     1.10199464     1.26090898     0.02259477
 C                     2.24803226     2.17109711    -0.00050948
 C                    -0.16845795     1.86044397     0.00091580
 O                    -0.30385876     3.09590285    -0.02657775
 N                    -1.26435303     1.01154921     0.02189367
 C                    -2.60469297     1.58648077    -0.01531985
 H                     1.68121254    -3.17801870     0.84204827
 H                     0.55753701    -4.26895548    -0.00124956
 H                     1.63622075    -3.19407033    -0.92102136
 H                    -1.80259162    -3.43726441    -0.01735945
 H                     3.08872350     1.66469437     0.46380202
 H                     2.51044991     2.42964429    -1.02746083
 H                     1.98293860     3.07756880     0.53439185
 H                    -3.29870254     0.85024673     0.38029493
 H                    -2.88788753     1.83927707    -1.03818823
 H                    -2.61424612     2.49281160     0.58382855
