    24
 geometry
 C                     1.03003922    -3.29485870     0.04998562
 N                    -0.00790015    -2.27579677     0.02914651
 C                    -1.35475060    -2.46470824     0.02563124
 N                    -2.04126823    -1.31439041     0.00228005
 C                    -1.07203325    -0.34987064    -0.00969436
 C                     0.19169401    -0.90244788     0.00616480
 C                     1.38351895    -0.12747732    -0.00041372
 O                     2.55182922    -0.57057411     0.01392326
 N                     1.10570170     1.25423328    -0.02570299
 C                     2.23745306     2.18151335    -0.03544118
 C                    -0.16402888     1.85228205    -0.04272010
 O                    -0.29483282     3.08807498    -0.06468917
 N                    -1.26222573     1.00768477    -0.03385372
 C                    -2.59712403     1.59560924    -0.05092834
 H                     1.66332044    -3.16950058     0.92523493
 H                     0.55487501    -4.27310656     0.07819199
 H                     1.65413598    -3.21611965    -0.83741810
 H                    -1.80157725    -3.44189732     0.04038114
 H                     3.14379826     1.58470132    -0.02056676
 H                     2.20274287     2.80218367    -0.92894948
 H                     2.19351507     2.83204812     0.83615484
 H                    -3.31520218     0.78077935    -0.03819357
 H                    -2.72830429     2.20073911    -0.94658702
 H                    -2.73555762     2.23497409     0.81945743
