    24
 geometry
 C                     1.03004166    -3.29485653     0.04985339
 N                    -0.00789999    -2.27579481     0.02910948
 C                    -1.35475141    -2.46471092     0.02551358
 N                    -2.04126728    -1.31439307     0.00216860
 C                    -1.07203688    -0.34987174    -0.00972112
 C                     0.19168997    -0.90244409     0.00618734
 C                     1.38350791    -0.12746880    -0.00038087
 O                     2.55182226    -0.57057672     0.01386939
 N                     1.10569934     1.25423542    -0.02555496
 C                     2.23745248     2.18151313    -0.03524443
 C                    -0.16403044     1.85227623    -0.04256268
 O                    -0.29483567     3.08807368    -0.06441977
 N                    -1.26222562     1.00768334    -0.03380178
 C                    -2.59712280     1.59560676    -0.05100612
 H                     1.66344923    -3.16944107     0.92500279
 H                     0.55488246    -4.27310294     0.07819729
 H                     1.65401243    -3.21617339    -0.83764587
 H                    -1.80157412    -3.44190196     0.04022384
 H                     3.14379859     1.58469879    -0.02048684
 H                     2.20269743     2.80228831    -0.92867692
 H                     2.19357167     2.83194364     0.83643232
 H                    -3.31521028     0.78082096    -0.03627646
 H                    -2.72904091     2.19909057    -0.94768283
 H                    -2.73481128     2.23658033     0.81829592
