    24
 geometry
 C                     1.03751347    -3.31137033    -0.02104118
 N                    -0.00741229    -2.28310143    -0.00491171
 C                    -1.36199951    -2.47216645    -0.00717801
 N                    -2.05000890    -1.31709500     0.00008919
 C                    -1.07616082    -0.34648808     0.00775550
 C                     0.19112459    -0.90076138     0.00648204
 C                     1.38453322    -0.12120739     0.00279388
 O                     2.55948893    -0.55912547    -0.00923330
 N                     1.10859452     1.27124552     0.01952950
 C                     2.26576388     2.18729892     0.00169849
 C                    -0.16955742     1.87337335    -0.00057538
 O                    -0.30703154     3.11315590    -0.02443278
 N                    -1.27181088     1.01760788     0.01935047
 C                    -2.62441703     1.59541802    -0.01439708
 H                     1.68758183    -3.19870132     0.84241227
 H                     0.56081441    -4.28833962     0.00269298
 H                     1.64236596    -3.21973417    -0.91969808
 H                    -1.80856454    -3.44874633    -0.01303722
 H                     3.10414994     1.67680696     0.46162879
 H                     2.52739209     2.44906234    -1.02400959
 H                     2.00091212     3.09081318     0.53848969
 H                    -3.31533585     0.85644867     0.37741880
 H                    -2.90665173     1.85051462    -1.03627991
 H                    -2.63343505     2.49916024     0.58580313
