    24
 geometry
 C                     1.03658991    -3.31571200     0.04972939
 N                    -0.00703609    -2.28653283     0.02907179
 C                    -1.36095753    -2.47587619     0.02538979
 N                    -2.04869600    -1.32128537     0.00210695
 C                    -1.07582433    -0.35085703    -0.00975124
 C                     0.19188251    -0.90438389     0.00613158
 C                     1.38825556    -0.12819220    -0.00025938
 O                     2.56005226    -0.57540109     0.01422595
 N                     1.11272031     1.26432052    -0.02559672
 C                     2.25566939     2.19690311    -0.03524595
 C                    -0.16552503     1.86504362    -0.04263294
 O                    -0.29903879     3.10481279    -0.06448030
 N                    -1.26938590     1.01321043    -0.03386602
 C                    -2.61662953     1.60286322    -0.05084560
 H                     1.66975140    -3.19092312     0.92420440
 H                     0.55756867    -4.29149026     0.07910273
 H                     1.65870752    -3.23887900    -0.83836001
 H                    -1.80866801    -3.45193411     0.03995418
 H                     3.15987291     1.59964893    -0.02067695
 H                     2.22095541     2.81682305    -0.92832063
 H                     2.21200813     2.84615684     0.83634593
 H                    -3.33195150     0.78738098    -0.03985807
 H                    -2.74699816     2.20854257    -0.94528699
 H                    -2.75547371     2.23982967     0.82026857
