    24
 geometry
 C                     1.03651489    -3.31562312     0.04629635
 N                    -0.00711956    -2.28645822     0.02299454
 C                    -1.36101134    -2.47566559     0.01722429
 N                    -2.04869593    -1.32098860    -0.00416853
 C                    -1.07567996    -0.35059723    -0.01184393
 C                     0.19192260    -0.90422256     0.00423942
 C                     1.38828393    -0.12809071     0.00151743
 O                     2.56006985    -0.57533177     0.01539377
 N                     1.11278160     1.26453148    -0.02035323
 C                     2.25586122     2.19691177    -0.02727956
 C                    -0.16544842     1.86541704    -0.03585411
 O                    -0.29849409     3.10534665    -0.05417311
 N                    -1.26934605     1.01355673    -0.02873004
 C                    -2.61686887     1.60211152    -0.05384307
 H                     1.66607479    -3.19202623     0.92355708
 H                     0.55744565    -4.29147131     0.07236204
 H                     1.66220447    -3.23740500    -0.83912814
 H                    -1.80894718    -3.45165211     0.02979604
 H                     3.15993833     1.59942943    -0.04041184
 H                     2.20581311     2.83686921    -0.90511518
 H                     2.22788687     2.82635624     0.85961204
 H                    -3.33114759     0.79367329     0.06051168
 H                    -2.78510814     2.11913187    -0.99724698
 H                    -2.71908076     2.32026583     0.75599349
