    24
 geometry
 C                     1.03642168    -3.31566104     0.04541310
 N                    -0.00709759    -2.28644246     0.02348359
 C                    -1.36103367    -2.47565331     0.01851699
 N                    -2.04868164    -1.32095325    -0.00257504
 C                    -1.07568218    -0.35058981    -0.01130273
 C                     0.19198700    -0.90427713     0.00429224
 C                     1.38837149    -0.12818277     0.00135359
 O                     2.56016973    -0.57521188     0.01528142
 N                     1.11274863     1.26457969    -0.02027299
 C                     2.25584907     2.19700689    -0.02646960
 C                    -0.16539891     1.86550131    -0.03586439
 O                    -0.29856007     3.10533178    -0.05470733
 N                    -1.26938141     1.01354226    -0.02874317
 C                    -2.61682420     1.60212393    -0.05485855
 H                     1.66679937    -3.19261283     0.92216699
 H                     0.55735011    -4.29151213     0.07138609
 H                     1.66141925    -3.23709799    -0.84048516
 H                    -1.80884116    -3.45168700     0.03193354
 H                     3.15990155     1.59953811    -0.04154700
 H                     2.20478386     2.83862972    -0.90298482
 H                     2.22888706     2.82464781     0.86177595
 H                    -3.33116041     0.79408296     0.06208400
 H                    -2.78556734     2.11652545    -0.99962380
 H                    -2.71861082     2.32244032     0.75309753
