    24
 geometry
 C                     1.03545216    -3.31068819    -0.01663339
 N                    -0.00676108    -2.28061688    -0.00796022
 C                    -1.36084266    -2.46982562    -0.00568766
 N                    -2.04914908    -1.31641509    -0.00254695
 C                    -1.07587312    -0.34651346    -0.00276663
 C                     0.19215604    -0.89926891    -0.00365236
 C                     1.38556785    -0.12010916    -0.00573839
 O                     2.55955989    -0.56209563    -0.01545030
 N                     1.10989157     1.27149415     0.00951734
 C                     2.26670189     2.18793982     0.00325679
 C                    -0.16857593     1.87314568    -0.00326279
 O                    -0.30774929     3.11258384    -0.01750676
 N                    -1.27108807     1.01693026     0.01067514
 C                    -2.62443102     1.59179627    -0.01458571
 H                     1.68582307    -3.19391838     0.84614437
 H                     0.55554235    -4.28576760     0.01375956
 H                     1.64078828    -3.22734939    -0.91586103
 H                    -1.80878972    -3.44588949    -0.00386677
 H                     3.10633192     1.67283271     0.45583072
 H                     2.53016832     2.46568071    -1.01765888
 H                     2.00397694     3.08500436     0.55189760
 H                    -3.31379652     0.84826707     0.37204627
 H                    -2.91165757     1.85690035    -1.03239518
 H                    -2.63539682     2.48995120     0.59379572
