    24
 geometry
 C                     1.03582717    -3.31693130     0.03172950
 N                    -0.00747160    -2.28691416     0.01836587
 C                    -1.36141776    -2.47492272     0.01213044
 N                    -2.04839464    -1.32019794    -0.01266718
 C                    -1.07426064    -0.35050082    -0.02641911
 C                     0.19289412    -0.90461307    -0.00445687
 C                     1.38927824    -0.12825022     0.01678933
 O                     2.56030580    -0.57702976     0.06022644
 N                     1.11363481     1.26419699    -0.00779079
 C                     2.25502258     2.19919830    -0.02645090
 C                    -0.16473167     1.86419458    -0.03577005
 O                    -0.29740621     3.10281958    -0.05691517
 N                    -1.26784349     1.01387909    -0.03501767
 C                    -2.61646266     1.60183819    -0.04505513
 H                     1.66962384    -3.19797047     0.90646865
 H                     0.55598068    -4.29245257     0.05364159
 H                     1.65675976    -3.23432612    -0.85676654
 H                    -1.81007839    -3.45051891     0.03328529
 H                     3.15934248     1.60503174     0.03133787
 H                     2.24080795     2.78629911    -0.94230120
 H                     2.18993590     2.87982799     0.81904571
 H                    -3.32627520     0.79963290     0.12582654
 H                    -2.81617558     2.07778389    -1.00389741
 H                    -2.69104613     2.35399435     0.73601128
