    24
 geometry
 C                     1.03663774    -3.31565481     0.04879827
 N                    -0.00707560    -2.28649990     0.02338957
 C                    -1.36096891    -2.47579914     0.01667290
 N                    -2.04871829    -1.32118886    -0.00614929
 C                    -1.07573795    -0.35075997    -0.01308102
 C                     0.19181265    -0.90426834     0.00495559
 C                     1.38823050    -0.12790010     0.00141015
 O                     2.55992246    -0.57556235     0.01607408
 N                     1.11289253     1.26429921    -0.02205727
 C                     2.25586077     2.19689462    -0.02952449
 C                    -0.16555777     1.86525054    -0.03907343
 O                    -0.29842233     3.10519284    -0.05813793
 N                    -1.26927650     1.01348757    -0.03096009
 C                    -2.61701682     1.60245306    -0.05066957
 H                     1.66549031    -3.19083759     0.92635137
 H                     0.55745443    -4.29141899     0.07569661
 H                     1.66285192    -3.23853979    -0.83634498
 H                    -1.80881591    -3.45186848     0.02441271
 H                     3.16004772     1.59946243    -0.03408478
 H                     2.21047953     2.83086706    -0.91201663
 H                     2.22264426     2.83241537     0.85275079
 H                    -3.33124017     0.79155390     0.04485002
 H                    -2.78000430     2.13778113    -0.98452269
 H                    -2.72364087     2.30470922     0.77261059
