    24
 geometry
 C                     1.03599021    -3.31609847     0.04496042
 N                    -0.00712283    -2.28657946     0.02820980
 C                    -1.36103529    -2.47593662     0.02157359
 N                    -2.04849714    -1.32112341    -0.00471038
 C                    -1.07552364    -0.35108451    -0.01546945
 C                     0.19233675    -0.90476302     0.00016358
 C                     1.38892588    -0.12874564     0.00318664
 O                     2.56088147    -0.57477089     0.01987908
 N                     1.11304668     1.26424352    -0.02017853
 C                     2.25513874     2.19770168    -0.02314149
 C                    -0.16505899     1.86502894    -0.04173701
 O                    -0.29795407     3.10426981    -0.06538000
 N                    -1.26932172     1.01314599    -0.03295275
 C                    -2.61607100     1.60223799    -0.05454767
 H                     1.66880848    -3.19556909     0.92036185
 H                     0.55679111    -4.29191747     0.07012401
 H                     1.65887338    -3.23561265    -0.84224859
 H                    -1.80925083    -3.45174140     0.03518681
 H                     3.15971342     1.60145463    -0.04952276
 H                     2.19795095     2.84793055    -0.89283189
 H                     2.23373225     2.81719144     0.87121873
 H                    -3.33048909     0.79564846     0.07129504
 H                    -2.79121297     2.11109983    -1.00131066
 H                    -2.71280237     2.32805840     0.74922211
