    24
 geometry
 C                     1.03658994    -3.31571206     0.04973970
 N                    -0.00703615    -2.28653387     0.02904618
 C                    -1.36095732    -2.47587623     0.02538800
 N                    -2.04869650    -1.32128544     0.00210733
 C                    -1.07582390    -0.35085719    -0.00976989
 C                     0.19188320    -0.90438539     0.00609410
 C                     1.38825843    -0.12819514    -0.00028581
 O                     2.56005344    -0.57540234     0.01421521
 N                     1.11272089     1.26431969    -0.02562430
 C                     2.25566952     2.19690368    -0.03525445
 C                    -0.16552498     1.86504462    -0.04264350
 O                    -0.29903835     3.10481373    -0.06447140
 N                    -1.26938630     1.01321098    -0.03387129
 C                    -2.61663055     1.60286410    -0.05082552
 H                     1.66968384    -3.19096265     0.92426969
 H                     0.55756796    -4.29149237     0.07903121
 H                     1.65877531    -3.23883663    -0.83829744
 H                    -1.80866820    -3.45193389     0.03996583
 H                     3.15987212     1.59964999    -0.02061813
 H                     2.22100217     2.81678781    -0.92835664
 H                     2.21196002     2.84619191     0.83630870
 H                    -3.33195234     0.78738110    -0.03984521
 H                    -2.74700823     2.20856023    -0.94525447
 H                    -2.75546461     2.23981397     0.82030256
