    24
 geometry
 C                     1.03659094    -3.31570307     0.04979757
 N                    -0.00703576    -2.28652572     0.02914100
 C                    -1.36095604    -2.47587756     0.02538865
 N                    -2.04869574    -1.32128704     0.00204284
 C                    -1.07582601    -0.35085887    -0.00979544
 C                     0.19187783    -0.90438026     0.00617255
 C                     1.38824711    -0.12819019    -0.00026174
 O                     2.56004353    -0.57540790     0.01417065
 N                     1.11271695     1.26431411    -0.02557583
 C                     2.25566383     2.19689896    -0.03528557
 C                    -0.16552320     1.86501601    -0.04259905
 O                    -0.29903761     3.10479863    -0.06435269
 N                    -1.26938321     1.01320516    -0.03396290
 C                    -2.61662317     1.60286692    -0.05088302
 H                     1.66984605    -3.19081419     0.92418676
 H                     0.55757331    -4.29147736     0.07933766
 H                     1.65861530    -3.23897341    -0.83836560
 H                    -1.80865983    -3.45193861     0.03995618
 H                     3.15987082     1.59964766    -0.02092576
 H                     2.22080569     2.81692603    -0.92828033
 H                     2.21214904     2.84605103     0.83639087
 H                    -3.33195112     0.78738527    -0.04032128
 H                    -2.74685361     2.20891015    -0.94509527
 H                    -2.75560571     2.23948288     0.82047020
