    24
 geometry
 C                     1.03658806    -3.31570989     0.04982155
 N                    -0.00703861    -2.28653337     0.02917962
 C                    -1.36095634    -2.47587447     0.02540726
 N                    -2.04869387    -1.32128419     0.00202614
 C                    -1.07582397    -0.35085616    -0.00981496
 C                     0.19188361    -0.90438194     0.00619183
 C                     1.38825809    -0.12819826    -0.00031310
 O                     2.56005585    -0.57540065     0.01399784
 N                     1.11271755     1.26432508    -0.02555294
 C                     2.25566920     2.19690201    -0.03529750
 C                    -0.16552496     1.86504806    -0.04255563
 O                    -0.29904465     3.10481812    -0.06420405
 N                    -1.26938573     1.01320732    -0.03403900
 C                    -2.61662724     1.60286081    -0.05090599
 H                     1.66990135    -3.19077331     0.92416591
 H                     0.55757342    -4.29148352     0.07945063
 H                     1.65855431    -3.23903170    -0.83838833
 H                    -1.80867404    -3.45192799     0.04002403
 H                     3.15987119     1.59964336    -0.02077537
 H                     2.22090485     2.81680253    -0.92838446
 H                     2.21206749     2.84617304     0.83628389
 H                    -3.33194444     0.78736546    -0.04065326
 H                    -2.74676820     2.20916995    -0.94494480
 H                    -2.75571353     2.23920833     0.82063114
