    24
 geometry
 C                     1.03661855    -3.31569660     0.04991385
 N                    -0.00702148    -2.28650041     0.02912895
 C                    -1.36091970    -2.47590109     0.02539008
 N                    -2.04865173    -1.32129129     0.00206222
 C                    -1.07584435    -0.35083339    -0.00974523
 C                     0.19183091    -0.90430668     0.00611938
 C                     1.38810683    -0.12811391    -0.00042348
 O                     2.55999569    -0.57539574     0.01388967
 N                     1.11267319     1.26431756    -0.02570415
 C                     2.25559719     2.19685781    -0.03541552
 C                    -0.16550788     1.86483951    -0.04274084
 O                    -0.29906940     3.10469767    -0.06454966
 N                    -1.26935330     1.01314071    -0.03423769
 C                    -2.61655262     1.60286546    -0.05081144
 H                     1.66991167    -3.19067264     0.92427546
 H                     0.55759134    -4.29146275     0.07967080
 H                     1.65861819    -3.23912923    -0.83829967
 H                    -1.80873429    -3.45189744     0.04066742
 H                     3.15984896     1.59965862    -0.02056874
 H                     2.22116714     2.81657799    -0.92865696
 H                     2.21184271     2.84641745     0.83594659
 H                    -3.33189014     0.78739289    -0.04300249
 H                    -2.74590951     2.21122670    -0.94355341
 H                    -2.75649860     2.23727741     0.82199530
