    24
 geometry
 C                     1.03658842    -3.31571222     0.04970136
 N                    -0.00703713    -2.28653271     0.02908060
 C                    -1.36095491    -2.47587750     0.02538180
 N                    -2.04869892    -1.32128472     0.00209986
 C                    -1.07582150    -0.35085522    -0.00974433
 C                     0.19188402    -0.90438679     0.00615238
 C                     1.38826858    -0.12820513    -0.00025000
 O                     2.56005770    -0.57540319     0.01420882
 N                     1.11272002     1.26432035    -0.02556455
 C                     2.25566778     2.19690623    -0.03525495
 C                    -0.16552321     1.86504252    -0.04260621
 O                    -0.29903711     3.10481422    -0.06443782
 N                    -1.26938657     1.01321284    -0.03386647
 C                    -2.61663030     1.60286483    -0.05081958
 H                     1.66980578    -3.19089659     0.92412928
 H                     0.55756815    -4.29148857     0.07913723
 H                     1.65864832    -3.23890892    -0.83842946
 H                    -1.80866828    -3.45193485     0.03993481
 H                     3.15986787     1.59965859    -0.02030320
 H                     2.22116728     2.81654341    -0.92853867
 H                     2.21179038     2.84643444     0.83611798
 H                    -3.33195280     0.78737962    -0.03993420
 H                    -2.74697218     2.20863680    -0.94520259
 H                    -2.75550198     2.23974119     0.82035838
