    24
 geometry
 C                     1.03658835    -3.31570965     0.04981405
 N                    -0.00703608    -2.28653010     0.02916404
 C                    -1.36095111    -2.47587668     0.02539111
 N                    -2.04869160    -1.32128815     0.00201349
 C                    -1.07582777    -0.35085605    -0.00981794
 C                     0.19187915    -0.90437629     0.00617886
 C                     1.38824119    -0.12818545    -0.00033627
 O                     2.56004990    -0.57539913     0.01394201
 N                     1.11271224     1.26432778    -0.02554756
 C                     2.25565988     2.19690085    -0.03528338
 C                    -0.16551959     1.86502201    -0.04255285
 O                    -0.29904313     3.10480454    -0.06417977
 N                    -1.26938105     1.01320115    -0.03406499
 C                    -2.61661904     1.60286181    -0.05089907
 H                     1.66991210    -3.19076323     0.92415093
 H                     0.55757127    -4.29148153     0.07946587
 H                     1.65854864    -3.23905185    -0.83840401
 H                    -1.80867761    -3.45192468     0.04008168
 H                     3.15986803     1.59965182    -0.02063812
 H                     2.22098744     2.81672764    -0.92842726
 H                     2.21198806     2.84625671     0.83623125
 H                    -3.33194053     0.78737195    -0.04065709
 H                    -2.74677406     2.20919140    -0.94492277
 H                    -2.75569531     2.23919375     0.82064825
