    24
 geometry
 C                     1.03659706    -3.31559102     0.04696720
 N                    -0.00714505    -2.28647449     0.02279580
 C                    -1.36101051    -2.47568347     0.01652020
 N                    -2.04873536    -1.32103334    -0.00524395
 C                    -1.07568455    -0.35063325    -0.01227759
 C                     0.19186682    -0.90420677     0.00428278
 C                     1.38825135    -0.12802406     0.00156637
 O                     2.55997605    -0.57547669     0.01546687
 N                     1.11284551     1.26445507    -0.02059252
 C                     2.25589216     2.19685835    -0.02787806
 C                    -0.16549472     1.86537246    -0.03629921
 O                    -0.29840221     3.10535527    -0.05440690
 N                    -1.26931077     1.01357074    -0.02897375
 C                    -2.61694670     1.60213777    -0.05285007
 H                     1.66569086    -3.19154185     0.92447758
 H                     0.55752324    -4.29142946     0.07319220
 H                     1.66261138    -3.23763384    -0.83823367
 H                    -1.80900901    -3.45165548     0.02787211
 H                     3.16000650     1.59938554    -0.03819559
 H                     2.20737844     2.83474137    -0.90734559
 H                     2.22621576     2.82844929     0.85738925
 H                    -3.33113221     0.79320641     0.05850738
 H                    -2.78453213     2.12223474    -0.99464527
 H                    -2.71960250     2.31768535     0.75925489
