    24
 geometry
 C                     1.03073414    -3.31499784    -0.02561217
 N                    -0.00199691    -2.27927267     0.00014308
 C                    -1.35916517    -2.49410891    -0.00998926
 N                    -2.04955128    -1.33632397     0.00271267
 C                    -1.07728837    -0.35440872     0.02358165
 C                     0.19826275    -0.89707578     0.02082033
 C                     1.38471624    -0.10441976     0.01632659
 O                     2.57323176    -0.55402204    -0.00389850
 N                     1.11637302     1.27970845     0.03052251
 C                     2.25583786     2.19290468    -0.00824443
 C                    -0.16744491     1.86936935     0.00455703
 O                    -0.30907354     3.11453618    -0.04142639
 N                    -1.27085080     1.01943689     0.02955318
 C                    -2.61116097     1.60113294    -0.01880033
 H                     1.68137365    -3.22433669     0.83948693
 H                     0.54039242    -4.28627604    -0.01081268
 H                     1.63620750    -3.22759154    -0.92382398
 H                    -1.80941155    -3.46806804    -0.02909031
 H                     3.09657115     1.70488734     0.47376485
 H                     2.51782422     2.44454542    -1.03590494
 H                     1.99566170     3.09855603     0.53006738
 H                    -3.30901694     0.87639934     0.38918257
 H                    -2.89512503     1.84718847    -1.04275369
 H                    -2.62925155     2.50630555     0.58098837
