    24
 geometry
 C                     1.03663981    -3.31569557     0.04968472
 N                    -0.00705511    -2.28656075     0.02803347
 C                    -1.36094577    -2.47589669     0.02400271
 N                    -2.04872723    -1.32131082     0.00076310
 C                    -1.07583213    -0.35087059    -0.01021354
 C                     0.19185785    -0.90438326     0.00571481
 C                     1.38826665    -0.12817181    -0.00059193
 O                     2.56002429    -0.57547943     0.01359422
 N                     1.11276063     1.26429210    -0.02553929
 C                     2.25569332     2.19688621    -0.03405445
 C                    -0.16554728     1.86503847    -0.04365651
 O                    -0.29895417     3.10481576    -0.06580921
 N                    -1.26936912     1.01322423    -0.03508742
 C                    -2.61669714     1.60284830    -0.05027967
 H                     1.66939111    -3.19033578     0.92435874
 H                     0.55762487    -4.29146265     0.07940327
 H                     1.65908164    -3.23931153    -0.83820162
 H                    -1.80874422    -3.45189800     0.03958542
 H                     3.15989642     1.59963142    -0.01964537
 H                     2.22131917     2.81749649    -0.92665966
 H                     2.21162844     2.84550952     0.83799201
 H                    -3.33197162     0.78745835    -0.03156734
 H                    -2.75095243     2.20302383    -0.94790293
 H                    -2.75153862     2.24522084     0.81742695
