    24
 geometry
 C                     1.03731023    -3.31583378     0.02067257
 N                    -0.00726527    -2.28746631     0.01458118
 C                    -1.36070052    -2.47717441     0.01696135
 N                    -2.04851113    -1.32093819    -0.00093931
 C                    -1.07622194    -0.35179762    -0.01297646
 C                     0.19137565    -0.90572529    -0.00660048
 C                     1.38920348    -0.13110137     0.02727050
 O                     2.55804589    -0.58021536     0.09089439
 N                     1.11481543     1.26224577    -0.00733310
 C                     2.25314406     2.19748161    -0.02960064
 C                    -0.16448419     1.86591959    -0.02540014
 O                    -0.29050707     3.10735853    -0.02683380
 N                    -1.26974851     1.01339058    -0.03793237
 C                    -2.61480421     1.60167973    -0.04556360
 H                     1.67686222    -3.19658937     0.89090890
 H                     0.56038128    -4.29286841     0.04468461
 H                     1.65305194    -3.23181763    -0.87138496
 H                    -1.81154666    -3.45159376     0.01920732
 H                     3.15602555     1.60703218     0.06976216
 H                     2.26587335     2.74856106    -0.96984720
 H                     2.15993827     2.91472701     0.78147600
 H                    -3.32726511     0.80714167     0.15020719
 H                    -2.82747376     2.05487000    -1.01434039
 H                    -2.67964962     2.37678238     0.71347674
