    24
 geometry
 C                     1.03681347    -3.31133271    -0.01587026
 N                    -0.00664457    -2.28205133    -0.00818739
 C                    -1.36071699    -2.47179906    -0.00563038
 N                    -2.04897874    -1.31719615    -0.00287779
 C                    -1.07637479    -0.34652804    -0.00358471
 C                     0.19105738    -0.90016123    -0.00479789
 C                     1.38476707    -0.12067735    -0.00630969
 O                     2.55923422    -0.56098657    -0.01578943
 N                     1.10929475     1.27080194     0.00813169
 C                     2.26554989     2.18742042     0.00273100
 C                    -0.16936731     1.87348592    -0.00331161
 O                    -0.30658112     3.11322160    -0.01681895
 N                    -1.27161487     1.01748987     0.00949330
 C                    -2.62406063     1.59426559    -0.01494393
 H                     1.68675105    -3.19330925     0.84714174
 H                     0.55827141    -4.28729628     0.01519823
 H                     1.64212408    -3.22817480    -0.91518141
 H                    -1.80847102    -3.44801578    -0.00362965
 H                     3.10546839     1.67133139     0.45424540
 H                     2.52687335     2.46728200    -1.01821893
 H                     2.00355563     3.08274964     0.55513816
 H                    -3.31418495     0.85111079     0.37108691
 H                    -2.91040395     1.86124762    -1.03262969
 H                    -2.63451235     2.49119040     0.59596576
