    24
 geometry
 C                     1.03659018    -3.31571117     0.04974698
 N                    -0.00703550    -2.28653235     0.02904041
 C                    -1.36095760    -2.47587613     0.02539117
 N                    -2.04869511    -1.32128550     0.00209968
 C                    -1.07582451    -0.35085814    -0.00979358
 C                     0.19188186    -0.90438388     0.00606936
 C                     1.38825159    -0.12818940    -0.00030441
 O                     2.56004974    -0.57540201     0.01420697
 N                     1.11272052     1.26431823    -0.02564520
 C                     2.25566874     2.19690203    -0.03525015
 C                    -0.16552480     1.86503970    -0.04264337
 O                    -0.29903825     3.10481079    -0.06443441
 N                    -1.26938478     1.01320897    -0.03388960
 C                    -2.61662885     1.60286363    -0.05082895
 H                     1.66970019    -3.19093400     0.92426173
 H                     0.55756780    -4.29149021     0.07907789
 H                     1.65876059    -3.23886532    -0.83830436
 H                    -1.80866735    -3.45193382     0.03998701
 H                     3.15987320     1.59965040    -0.02062805
 H                     2.22100345     2.81680868    -0.92833699
 H                     2.21195805     2.84617067     0.83632695
 H                    -3.33195081     0.78738203    -0.03986074
 H                    -2.74700917     2.20857571    -0.94524672
 H                    -2.75545980     2.23979974     0.82030881
