    24
 geometry
 C                     1.03657092    -3.31572742     0.04973371
 N                    -0.00703667    -2.28654446     0.02913764
 C                    -1.36095393    -2.47587109     0.02534555
 N                    -2.04869863    -1.32128558     0.00194958
 C                    -1.07581895    -0.35085498    -0.00986831
 C                     0.19190097    -0.90440444     0.00617868
 C                     1.38830552    -0.12821942    -0.00031386
 O                     2.56008806    -0.57539516     0.01392146
 N                     1.11272486     1.26433235    -0.02544199
 C                     2.25567738     2.19692358    -0.03513074
 C                    -0.16552412     1.86509574    -0.04250539
 O                    -0.29903934     3.10485083    -0.06405155
 N                    -1.26939431     1.01322569    -0.03405936
 C                    -2.61664433     1.60286556    -0.05094798
 H                     1.66991850    -3.19081996     0.92405437
 H                     0.55755138    -4.29149762     0.07934699
 H                     1.65851579    -3.23905007    -0.83848888
 H                    -1.80865162    -3.45193479     0.03990828
 H                     3.15986899     1.59965177    -0.02065539
 H                     2.22088695     2.81688624    -0.92817101
 H                     2.21206608     2.84612154     0.83650795
 H                    -3.33195724     0.78738019    -0.03907452
 H                    -2.74741492     2.20787596    -0.94579024
 H                    -2.75509192     2.24046414     0.81976549
