    24
 geometry
 C                     1.03658786    -3.31570854     0.04981066
 N                    -0.00703702    -2.28652848     0.02912175
 C                    -1.36095834    -2.47587458     0.02539994
 N                    -2.04869506    -1.32128440     0.00205359
 C                    -1.07582413    -0.35085808    -0.00981115
 C                     0.19188000    -0.90438132     0.00613182
 C                     1.38824968    -0.12818864    -0.00030937
 O                     2.56004870    -0.57540194     0.01410292
 N                     1.11271840     1.26432009    -0.02561910
 C                     2.25566804     2.19690247    -0.03525055
 C                    -0.16552328     1.86503074    -0.04258481
 O                    -0.29903908     3.10480861    -0.06428653
 N                    -1.26938192     1.01320778    -0.03394898
 C                    -2.61662487     1.60285951    -0.05092142
 H                     1.66982666    -3.19081009     0.92421392
 H                     0.55756733    -4.29148214     0.07935263
 H                     1.65863038    -3.23898983    -0.83834267
 H                    -1.80866703    -3.45193290     0.03998788
 H                     3.15987571     1.59964279    -0.02116257
 H                     2.22067939     2.81715443    -0.92808012
 H                     2.21228161     2.84583606     0.83659708
 H                    -3.33194656     0.78737632    -0.04010286
 H                    -2.74693437     2.20867332    -0.94527910
 H                    -2.75553271     2.23969746     0.82027750
