    24
 geometry
 C                     1.03635105    -3.31572092     0.04448561
 N                    -0.00703810    -2.28639907     0.02424672
 C                    -1.36102478    -2.47564780     0.02024653
 N                    -2.04863717    -1.32093153    -0.00075858
 C                    -1.07570780    -0.35057705    -0.01083345
 C                     0.19201004    -0.90429731     0.00436079
 C                     1.38837998    -0.12817106     0.00115724
 O                     2.56023109    -0.57509735     0.01531231
 N                     1.11271049     1.26458869    -0.02033837
 C                     2.25580549     2.19709435    -0.02553752
 C                    -0.16535472     1.86549752    -0.03635392
 O                    -0.29856557     3.10526533    -0.05592973
 N                    -1.26939989     1.01350904    -0.02906137
 C                    -2.61680570     1.60217752    -0.05587732
 H                     1.66778202    -3.19331189     0.92058325
 H                     0.55722247    -4.29154767     0.07039228
 H                     1.66041562    -3.23678163    -0.84205903
 H                    -1.80869393    -3.45173515     0.03420859
 H                     3.15985374     1.59965970    -0.04258168
 H                     2.20381892     2.84058777    -0.90058005
 H                     2.22976552     2.82277131     0.86415847
 H                    -3.33114196     0.79443965     0.06314821
 H                    -2.78595650     2.11454571    -1.00167357
 H                    -2.71817092     2.32415047     0.75063508
