    24
 geometry
 C                     1.03654941    -3.31559466     0.04147762
 N                    -0.00717926    -2.28632206     0.02686719
 C                    -1.36107589    -2.47541060     0.02339095
 N                    -2.04871949    -1.32073448    -0.00056324
 C                    -1.07559347    -0.35046246    -0.01324716
 C                     0.19198053    -0.90418221     0.00139601
 C                     1.38839385    -0.12805346     0.00203217
 O                     2.56006014    -0.57546337     0.01861196
 N                     1.11286210     1.26456211    -0.01981330
 C                     2.25599799     2.19688421    -0.02198866
 C                    -0.16544622     1.86550203    -0.04015048
 O                    -0.29836559     3.10541874    -0.06246664
 N                    -1.26930395     1.01369718    -0.03158034
 C                    -2.61703994     1.60181401    -0.05510385
 H                     1.67095793    -3.19467202     0.91559414
 H                     0.55760038    -4.29150443     0.06717553
 H                     1.65728050    -3.23463269    -0.84719371
 H                    -1.80909908    -3.45135195     0.03702273
 H                     3.16003480     1.59927140    -0.03145709
 H                     2.20982932     2.83695763    -0.89998309
 H                     2.22403585     2.82630189     0.86475331
 H                    -3.33045448     0.79560455     0.07888762
 H                    -2.79423762     2.10286199    -1.00559251
 H                    -2.71121840     2.33357728     0.74328131
