    24
 geometry
 C                     1.03659046    -3.31570909     0.04979139
 N                    -0.00703534    -2.28652946     0.02908908
 C                    -1.36095891    -2.47587584     0.02539077
 N                    -2.04869255    -1.32128606     0.00206549
 C                    -1.07582649    -0.35085955    -0.00980420
 C                     0.19187814    -0.90437989     0.00610946
 C                     1.38824075    -0.12818063    -0.00029642
 O                     2.56004509    -0.57540065     0.01416975
 N                     1.11271734     1.26431863    -0.02562946
 C                     2.25566645     2.19690106    -0.03523222
 C                    -0.16552548     1.86502654    -0.04262103
 O                    -0.29903989     3.10480330    -0.06437883
 N                    -1.26938187     1.01320442    -0.03392569
 C                    -2.61662335     1.60286214    -0.05090686
 H                     1.66978484    -3.19084499     0.92423311
 H                     0.55756923    -4.29148455     0.07926778
 H                     1.65867765    -3.23895344    -0.83832834
 H                    -1.80866674    -3.45193410     0.03998334
 H                     3.15987583     1.59964178    -0.02118413
 H                     2.22066114     2.81719974    -0.92802741
 H                     2.21229885     2.84578993     0.83665069
 H                    -3.33194788     0.78738611    -0.03988034
 H                    -2.74700748     2.20850932    -0.94536755
 H                    -2.75545041     2.23986389     0.82018207
