    24
 geometry
 C                     1.03659023    -3.31570703     0.04975852
 N                    -0.00703523    -2.28652743     0.02909814
 C                    -1.36095675    -2.47587778     0.02539685
 N                    -2.04869545    -1.32128476     0.00207969
 C                    -1.07582442    -0.35085767    -0.00978570
 C                     0.19187866    -0.90438131     0.00613035
 C                     1.38824680    -0.12818748    -0.00028049
 O                     2.56004440    -0.57540588     0.01417666
 N                     1.11271767     1.26431543    -0.02559754
 C                     2.25566346     2.19690105    -0.03522998
 C                    -0.16552186     1.86502336    -0.04260293
 O                    -0.29903731     3.10480200    -0.06436663
 N                    -1.26938116     1.01320687    -0.03391067
 C                    -2.61662296     1.60286475    -0.05089983
 H                     1.66981258    -3.19085198     0.92417912
 H                     0.55757048    -4.29148265     0.07924058
 H                     1.65864892    -3.23894436    -0.83837867
 H                    -1.80866339    -3.45193754     0.03997646
 H                     3.15987226     1.59964883    -0.02097124
 H                     2.22076989     2.81704021    -0.92814259
 H                     2.21217978     2.84594400     0.83653017
 H                    -3.33195061     0.78738987    -0.03984738
 H                    -2.74701266     2.20848845    -0.94537668
 H                    -2.75544394     2.23988966     0.82017426
