    24
 geometry
 C                     1.03658865    -3.31571137     0.04973156
 N                    -0.00703670    -2.28653202     0.02908554
 C                    -1.36095589    -2.47587716     0.02538457
 N                    -2.04869698    -1.32128466     0.00208571
 C                    -1.07582265    -0.35085604    -0.00976684
 C                     0.19188252    -0.90438508     0.00613973
 C                     1.38826190    -0.12819876    -0.00026250
 O                     2.56005481    -0.57540268     0.01420122
 N                     1.11271914     1.26431973    -0.02558242
 C                     2.25566730     2.19690515    -0.03524682
 C                    -0.16552422     1.86503858    -0.04261124
 O                    -0.29903760     3.10481105    -0.06441711
 N                    -1.26938520     1.01321057    -0.03389073
 C                    -2.61662829     1.60286409    -0.05085126
 H                     1.66980122    -3.19087792     0.92416196
 H                     0.55756821    -4.29148722     0.07918392
 H                     1.65865478    -3.23892560    -0.83839711
 H                    -1.80866710    -3.45193493     0.03994909
 H                     3.15987001     1.59965244    -0.02061555
 H                     2.22098449     2.81677445    -0.92835833
 H                     2.21197231     2.84620787     0.83630669
 H                    -3.33195173     0.78738201    -0.03990445
 H                    -2.74699087     2.20858423    -0.94526626
 H                    -2.75547876     2.23979189     0.82029109
