    24
 geometry
 C                     1.03789734    -3.31336913    -0.00053804
 N                    -0.00650851    -2.28485449    -0.00021265
 C                    -1.36027096    -2.47425426     0.00502748
 N                    -2.04851589    -1.31873322     0.00058085
 C                    -1.07671733    -0.34808447    -0.00468823
 C                     0.19037433    -0.90276759    -0.01012697
 C                     1.38597448    -0.12565987     0.00729566
 O                     2.55870998    -0.57175225     0.03158732
 N                     1.11097109     1.26738015    -0.00376216
 C                     2.26054773     2.19127141    -0.01257775
 C                    -0.16763496     1.87123874    -0.00945176
 O                    -0.30088727     3.11291770    -0.00861593
 N                    -1.27148975     1.01632228    -0.01390675
 C                    -2.62112214     1.59881902    -0.02845186
 H                     1.68409875    -3.19218976     0.86469910
 H                     0.56084563    -4.29006859     0.03103548
 H                     1.64683511    -3.23208296    -0.89756045
 H                    -1.80834051    -3.44999129     0.00028521
 H                     3.13406490     1.63295053     0.30318711
 H                     2.42284648     2.58430164    -1.01652390
 H                     2.05637781     3.02123771     0.65527570
 H                    -3.32114926     0.83080635     0.28394702
 H                    -2.87916016     1.94153759    -1.03088466
 H                    -2.64989749     2.44909337     0.64573064
